7MYU_ZR7_A_401
     RDKit          3D

 35 39  0  0  0  0  0  0  0  0999 V2000
   31.9680   54.3090   89.4590 O   0  0  0  0  0  0  0  0  0  0  0  0
   15.9230   56.0620   88.4250 C   0  0  0  0  0  0  0  0  0  0  0  0
   18.0760   55.6220   87.5890 C   0  0  0  0  0  0  0  0  0  0  0  0
   22.5060   55.3280   89.6830 C   0  0  0  0  0  0  0  0  0  0  0  0
   19.4220   55.9440   87.6150 N   0  0  0  0  0  0  0  0  0  0  0  0
   20.4320   55.2500   86.8230 C   0  0  0  0  0  0  0  0  0  0  0  0
   19.9790   57.0740   88.3710 C   0  0  0  0  0  0  0  0  0  0  0  0
   21.3680   57.2470   87.7870 C   0  0  2  0  0  0  0  0  0  0  0  0
   21.7830   55.8060   87.4060 C   0  0  2  0  0  0  0  0  0  0  0  0
   28.0470   56.2380   85.1840 O   0  0  0  0  0  0  0  0  0  0  0  0
   27.8070   55.6340   86.2030 C   0  0  0  0  0  0  0  0  0  0  0  0
   28.9000   55.2610   87.0900 C   0  0  0  0  0  0  0  0  0  0  0  0
   28.6810   54.3180   88.0410 N   0  0  0  0  0  0  0  0  0  0  0  0
   29.6720   53.9880   88.8350 C   0  0  0  0  0  0  0  0  0  0  0  0
   30.9500   54.6420   88.6620 C   0  0  0  0  0  0  0  0  0  0  0  0
   32.0310   52.9870   89.9990 C   0  0  0  0  0  0  0  0  0  0  0  0
   31.1610   55.5760   87.7250 N   0  0  0  0  0  0  0  0  0  0  0  0
   30.1340   55.8970   86.9260 C   0  0  0  0  0  0  0  0  0  0  0  0
   26.5550   55.3150   86.6350 N   0  0  0  0  0  0  0  0  0  0  0  0
   25.3490   55.5500   85.9930 C   0  0  0  0  0  0  0  0  0  0  0  0
   25.1900   56.0190   84.6560 C   0  0  0  0  0  0  0  0  0  0  0  0
   23.9200   56.3880   84.2000 C   0  0  0  0  0  0  0  0  0  0  0  0
   22.8500   56.2900   85.0690 C   0  0  0  0  0  0  0  0  0  0  0  0
   21.6920   56.6540   84.5940 F   0  0  0  0  0  0  0  0  0  0  0  0
   24.2570   55.4320   86.8460 C   0  0  0  0  0  0  0  0  0  0  0  0
   22.9780   55.8090   86.4330 C   0  0  0  0  0  0  0  0  0  0  0  0
   22.1140   54.9160   88.5140 N   0  0  0  0  0  0  0  0  0  0  0  0
   22.7980   54.4040   90.6650 N   0  0  0  0  0  0  0  0  0  0  0  0
   22.7290   57.0370   90.2290 S   0  0  0  0  0  0  0  0  0  0  0  0
   22.3750   57.9460   88.7020 C   0  0  0  0  0  0  0  0  0  0  0  0
   17.6540   54.6180   86.6940 N   0  0  0  0  0  0  0  0  0  0  0  0
   16.3270   54.3470   86.7130 C   0  0  0  0  0  0  0  0  0  0  0  0
   15.4390   55.0560   87.5810 C   0  0  0  0  0  0  0  0  0  0  0  0
   14.2010   54.7660   87.6410 F   0  0  0  0  0  0  0  0  0  0  0  0
   17.2280   56.3580   88.4480 N   0  0  0  0  0  0  0  0  0  0  0  0
  3  5  1  0
  5  6  1  0
  5  7  1  0
  8  7  1  1
  6  9  1  0
  8  9  1  0
 10 11  2  0
 11 12  1  0
 12 13  2  0
 13 14  1  0
 14 15  2  0
  1 15  1  0
  1 16  1  0
 15 17  1  0
 12 18  1  0
 17 18  2  0
 11 19  1  0
 19 20  1  0
 20 21  2  0
 21 22  1  0
 22 23  2  0
 23 24  1  0
 20 25  1  0
 23 26  1  0
 25 26  2  0
  9 26  1  6
  9 27  1  0
  4 27  2  0
  4 28  1  0
  4 29  1  0
  8 30  1  0
 29 30  1  0
  3 31  1  0
 31 32  2  0
 32 33  1  0
  2 33  2  0
 33 34  1  0
  3 35  2  0
  2 35  1  0
M  END
$$$$
