7MYU_ZR7_A_401
     RDKit          3D

 35 39  0  0  0  0  0  0  0  0999 V2000
   31.8570   50.9485   91.3007 C   0  0  0  0  0  0  0  0  0  0  0  0
   32.3315   52.2933   91.1450 O   0  0  0  0  0  0  0  0  0  0  0  0
   31.4656   53.1093   90.5486 C   0  0  0  0  0  0  0  0  0  0  0  0
   30.2693   53.1062   90.5191 C   0  0  0  0  0  0  0  0  0  0  0  0
   29.5278   53.5507   89.3536 N   0  0  0  0  0  0  0  0  0  0  0  0
   30.0568   54.0478   88.4590 C   0  0  0  0  0  0  0  0  0  0  0  0
   29.3829   54.6735   87.4425 C   0  0  0  0  0  0  0  0  0  0  0  0
   30.1109   55.4027   86.7700 O   0  0  0  0  0  0  0  0  0  0  0  0
   28.1943   55.1910   87.3940 N   0  0  0  0  0  0  0  0  0  0  0  0
   27.1867   55.7881   86.4619 C   0  0  0  0  0  0  0  0  0  0  0  0
   27.2442   56.1251   85.1536 C   0  0  0  0  0  0  0  0  0  0  0  0
   25.9914   56.9449   84.5360 C   0  0  0  0  0  0  0  0  0  0  0  0
   24.5217   56.8473   85.1048 C   0  0  0  0  0  0  0  0  0  0  0  0
   23.4697   57.5315   84.6328 F   0  0  0  0  0  0  0  0  0  0  0  0
   24.4772   56.4085   86.4036 C   0  0  0  0  0  0  0  0  0  0  0  0
   23.1756   56.5884   87.3876 C   0  0  2  0  0  0  0  0  0  0  0  0
   21.7299   56.0356   86.9585 C   0  0  0  0  0  0  0  0  0  0  0  0
   20.7908   56.6974   87.9031 N   0  0  0  0  0  0  0  0  0  0  0  0
   19.5197   56.4890   88.0107 C   0  0  0  0  0  0  0  0  0  0  0  0
   18.8576   56.1528   87.9320 N   0  0  0  0  0  0  0  0  0  0  0  0
   17.7033   56.4617   87.7847 C   0  0  0  0  0  0  0  0  0  0  0  0
   17.4032   55.9653   88.7260 C   0  0  0  0  0  0  0  0  0  0  0  0
   15.1577   54.9674   87.1733 F   0  0  0  0  0  0  0  0  0  0  0  0
   17.8785   57.7146   88.6650 C   0  0  0  0  0  0  0  0  0  0  0  0
   19.1895   57.7148   89.0636 N   0  0  0  0  0  0  0  0  0  0  0  0
   21.6134   58.0165   88.5042 C   0  0  0  0  0  0  0  0  0  0  0  0
   23.1379   58.0015   87.9836 C   0  0  1  0  0  0  0  0  0  0  0  0
   23.7286   58.8560   88.8114 C   0  0  0  0  0  0  0  0  0  0  0  0
   24.2111   57.9082   90.3457 S   0  0  0  0  0  0  0  0  0  0  0  0
   23.5530   55.8838   89.5798 C   0  0  0  0  0  0  0  0  0  0  0  0
   23.4115   54.6082   90.3850 N   0  0  0  0  0  0  0  0  0  0  0  0
   23.3120   55.4281   88.1027 N   0  0  0  0  0  0  0  0  0  0  0  0
   25.6495   55.4672   86.7707 C   0  0  0  0  0  0  0  0  0  0  0  0
   31.3590   54.3335   88.7537 C   0  0  0  0  0  0  0  0  0  0  0  0
   32.2518   53.9123   89.6637 N   0  0  0  0  0  0  0  0  0  0  0  0
  1  2  1  0
  2  3  1  0
  3  4  2  0
  4  5  1  0
  5  6  2  0
  6  7  1  0
  7  8  2  0
  7  9  1  0
  9 10  1  0
 10 11  2  0
 11 12  1  0
 12 13  2  0
 13 14  1  0
 13 15  1  0
 15 16  1  0
 16 17  1  6
 17 18  1  0
 18 19  1  0
 19 20  2  0
 20 21  1  0
 21 22  2  0
 22 23  1  0
 22 24  1  0
 24 25  2  0
 18 26  1  0
 27 26  1  1
 27 28  1  0
 28 29  1  0
 29 30  1  0
 30 31  1  0
 30 32  2  0
 15 33  2  0
  6 34  1  0
 34 35  2  0
 35  3  1  0
 33 10  1  0
 27 16  1  0
 32 16  1  0
 25 19  1  0
M  END
